/*---------------------------------------------------------------------------*\
| =========                 |                                                 |
| \\      /  F ield         | OpenFOAM: The Open Source CFD Toolbox           |
|  \\    /   O peration     | Version:  2212                                  |
|   \\  /    A nd           | Website:  www.openfoam.com                      |
|    \\/     M anipulation  |                                                 |
\*---------------------------------------------------------------------------*/
Build  : _66908158ae-20221220 OPENFOAM=2212 version=v1812
Arch   : "LSB;label=32;scalar=64"
Exec   : surfaceFeatureExtract
Date   : Aug 24 2023
Time   : 14:38:48
Host   : DMAL-C5
PID    : 2058654
I/O    : uncollated
Case   : /home/bideshsengupta/OpenFOAM/OpenFOAM-v1812/tutorials/heatTransfer/chtMultiRegionSimpleFoam/cpuCabinet
nProcs : 1
trapFpe: Floating point exception trapping enabled (FOAM_SIGFPE).
fileModificationChecking : Monitoring run-time modified files using timeStampMaster (fileModificationSkew 5, maxFileModificationPolls 20)
allowSystemOperations : Allowing user-supplied system call operations

// * * * * * * * * * * * * * * * * * * * * * * * * * * * * * * * * * * * * * //
Create time


Note: Feature line extraction only valid on closed manifold surfaces

Reading surfaceFeatureExtractDict

Surfaces     : MRF_region.obj
Output       : MRF_region
Load options : offset
Write options: writeObj=yes writeVTK=off

Statistics:
Triangles    : 11520 in 1 region(s)
Vertices     : 5762
Bounding Box : (-0.01425 0.0142038 -0.080164) (-0.00325 0.0581962 -0.0361644)

Constructing feature set from included angle 150
Selecting edges based purely on geometric tests: no

Initial Feature set:
    points : 0
    edges  : 276
    of which
        region edges   : 0
        external edges : 276
        internal edges : 0

Final Feature set:
    points : 276
    of which
        convex             : 0
        concave            : 0
        mixed              : 0
        non-feature        : 276
    edges  : 276
    of which
        external edges     : 276
        internal edges     : 0
        flat edges         : 0
        open edges         : 0
        multiply connected : 0

Writing extendedFeatureEdgeMesh to "/home/bideshsengupta/OpenFOAM/OpenFOAM-v1812/tutorials/heatTransfer/chtMultiRegionSimpleFoam/cpuCabinet/constant/extendedFeatureEdgeMesh/MRF_region.extendedFeatureEdgeMesh"

Writing extendedEdgeMesh components to "/home/bideshsengupta/OpenFOAM/OpenFOAM-v1812/tutorials/heatTransfer/chtMultiRegionSimpleFoam/cpuCabinet/constant/extendedFeatureEdgeMesh/MRF_region"
Writing 0 convex feature points to "/home/bideshsengupta/OpenFOAM/OpenFOAM-v1812/tutorials/heatTransfer/chtMultiRegionSimpleFoam/cpuCabinet/constant/extendedFeatureEdgeMesh/MRF_region_convexFeaturePts.obj"
Writing 0 concave feature points to "/home/bideshsengupta/OpenFOAM/OpenFOAM-v1812/tutorials/heatTransfer/chtMultiRegionSimpleFoam/cpuCabinet/constant/extendedFeatureEdgeMesh/MRF_region_concaveFeaturePts.obj"
Writing 0 mixed feature points to "/home/bideshsengupta/OpenFOAM/OpenFOAM-v1812/tutorials/heatTransfer/chtMultiRegionSimpleFoam/cpuCabinet/constant/extendedFeatureEdgeMesh/MRF_region_mixedFeaturePts.obj"
Writing 0 mixed feature point structure to "/home/bideshsengupta/OpenFOAM/OpenFOAM-v1812/tutorials/heatTransfer/chtMultiRegionSimpleFoam/cpuCabinet/constant/extendedFeatureEdgeMesh/MRF_region_mixedFeaturePtsStructure.obj"
Writing 276 external edges to "/home/bideshsengupta/OpenFOAM/OpenFOAM-v1812/tutorials/heatTransfer/chtMultiRegionSimpleFoam/cpuCabinet/constant/extendedFeatureEdgeMesh/MRF_region_externalEdges.obj"
Writing 0 internal edges to "/home/bideshsengupta/OpenFOAM/OpenFOAM-v1812/tutorials/heatTransfer/chtMultiRegionSimpleFoam/cpuCabinet/constant/extendedFeatureEdgeMesh/MRF_region_internalEdges.obj"
Writing 0 flat edges to "/home/bideshsengupta/OpenFOAM/OpenFOAM-v1812/tutorials/heatTransfer/chtMultiRegionSimpleFoam/cpuCabinet/constant/extendedFeatureEdgeMesh/MRF_region_flatEdges.obj"
Writing 0 open edges to "/home/bideshsengupta/OpenFOAM/OpenFOAM-v1812/tutorials/heatTransfer/chtMultiRegionSimpleFoam/cpuCabinet/constant/extendedFeatureEdgeMesh/MRF_region_openEdges.obj"
Writing 0 multiple edges to "/home/bideshsengupta/OpenFOAM/OpenFOAM-v1812/tutorials/heatTransfer/chtMultiRegionSimpleFoam/cpuCabinet/constant/extendedFeatureEdgeMesh/MRF_region_multipleEdges.obj"
Writing 0 region edges to "/home/bideshsengupta/OpenFOAM/OpenFOAM-v1812/tutorials/heatTransfer/chtMultiRegionSimpleFoam/cpuCabinet/constant/extendedFeatureEdgeMesh/MRF_region_regionEdges.obj"
Writing 276 edge directions to "/home/bideshsengupta/OpenFOAM/OpenFOAM-v1812/tutorials/heatTransfer/chtMultiRegionSimpleFoam/cpuCabinet/constant/extendedFeatureEdgeMesh/MRF_region_edgeDirections.obj"

Writing featureEdgeMesh to "/home/bideshsengupta/OpenFOAM/OpenFOAM-v1812/tutorials/heatTransfer/chtMultiRegionSimpleFoam/cpuCabinet/constant/triSurface/MRF_region.eMesh"
ExecutionTime = 0.02 s  ClockTime = 0 s

End

